
 ANSYS Mechanical Enterprise                       


 *------------------------------------------------------------------*
 |                                                                  |
 |   W E L C O M E   T O   T H E   A N S Y S (R)  P R O G R A M     |
 |                                                                  |
 *------------------------------------------------------------------*




 ***************************************************************
 *            ANSYS Release 19.2     LEGAL NOTICES             *
 ***************************************************************
 *                                                             *
 * Copyright 1971-2018 ANSYS, Inc.  All rights reserved.       *
 * Unauthorized use, distribution or duplication is            *
 * prohibited.                                                 *
 *                                                             *
 * Ansys is a registered trademark of ANSYS, Inc. or its       *
 * subsidiaries in the United States or other countries.       *
 * See the ANSYS, Inc. online documentation or the ANSYS, Inc. *
 * documentation CD or online help for the complete Legal      *
 * Notice.                                                     *
 *                                                             *
 ***************************************************************
 *                                                             *
 * THIS ANSYS SOFTWARE PRODUCT AND PROGRAM DOCUMENTATION       *
 * INCLUDE TRADE SECRETS AND CONFIDENTIAL AND PROPRIETARY      *
 * PRODUCTS OF ANSYS, INC., ITS SUBSIDIARIES, OR LICENSORS.    *
 * The software products and documentation are furnished by    *
 * ANSYS, Inc. or its subsidiaries under a software license    *
 * agreement that contains provisions concerning               *
 * non-disclosure, copying, length and nature of use,          *
 * compliance with exporting laws, warranties, disclaimers,    *
 * limitations of liability, and remedies, and other           *
 * provisions.  The software products and documentation may be *
 * used, disclosed, transferred, or copied only in accordance  *
 * with the terms and conditions of that software license      *
 * agreement.                                                  *
 *                                                             *
 * ANSYS, Inc. is a UL registered                              *
 * ISO 9001:2008 company.                                      *
 *                                                             *
 ***************************************************************
 *                                                             *
 * This product is subject to U.S. laws governing export and   *
 * re-export.                                                  *
 *                                                             *
 * For U.S. Government users, except as specifically granted   *
 * by the ANSYS, Inc. software license agreement, the use,     *
 * duplication, or disclosure by the United States Government  *
 * is subject to restrictions stated in the ANSYS, Inc.        *
 * software license agreement and FAR 12.212 (for non-DOD      *
 * licenses).                                                  *
 *                                                             *
 ***************************************************************

 Release 19.2
     
 Point Releases and Patches installed:   
     
 ANSYS, Inc. Products Release 19.2   
 SpaceClaim Release 19.2 
 AIM Release 19.2
 Autodyn Release 19.2
 LS-DYNA Release 19.2
 CFD-Post only Release 19.2  
 CFX (includes CFD-Post) Release 19.2
 Chemkin Release 19.2
 EnSight Release 19.2
 FENSAP-ICE Release 19.2 
 Fluent (includes CFD-Post) Release 19.2 
 Forte Release 19.2  
 Polyflow (includes CFD-Post) Release 19.2   
 TurboGrid Release 19.2  
 ICEM CFD Release 19.2   
 Aqwa Release 19.2   
 Customization Files for User Programmable Features Release 19.2 
 Mechanical Products Release 19.2
 Icepak (includes CFD-Post) Release 19.2 
 Remote Solve Manager Standalone Services Release 19.2   
 Viewer Release 19.2 
 ACIS Geometry Interface Release 19.2
 AutoCAD Geometry Interface Release 19.2 
 Catia, Version 4 Geometry Interface Release 19.2
 Catia, Version 5 Geometry Interface Release 19.2
 Catia, Version 6 Geometry Interface Release 19.2
 Creo Elements/Direct Modeling Geometry Interface Release 19.2   
 Creo Parametric Geometry Interface Release 19.2 
 Inventor Geometry Interface Release 19.2
 JTOpen Geometry Interface Release 19.2  
 NX Geometry Interface Release 19.2  
 Parasolid Geometry Interface  Release 19.2  
 Solid Edge Geometry Interface Release 19.2  
 SOLIDWORKS Geometry Interface Release 19.2  
 ANSYS, Inc. License Manager Release 19.2


          *****  ANSYS COMMAND LINE ARGUMENTS  *****
  BATCH MODE REQUESTED (-b)    = NOLIST
  INPUT FILE COPY MODE (-c)    = COPY
  DISTRIBUTED MEMORY PARALLEL REQUESTED
       8 PARALLEL PROCESSES REQUESTED WITH SINGLE THREAD PER PROCESS
    TOTAL OF     8 CORES REQUESTED
  MPI OPTION                   = INTELMPI
  INPUT FILE NAME              = C:\Users\gachi\Desktop\Темирлан\engine-design-hw\ансис\расчет\_ProjectScratch\Scr7A6E\dummy.dat
  OUTPUT FILE NAME             = C:\Users\gachi\Desktop\Темирлан\engine-design-hw\ансис\расчет\_ProjectScratch\Scr7A6E\solve.out
  START-UP FILE MODE           = NOREAD
  STOP FILE MODE               = NOREAD

 RELEASE= Release 19.2         BUILD= 19.2      UP20180808   VERSION=WINDOWS x64 
 CURRENT JOBNAME=file0  01:17:31  MAY 18, 2021 CP=      0.312


 PARAMETER _DS_PROGRESS =     999.0000000    

 /INPUT FILE= ds.dat  LINE=       0



 *** NOTE ***                            CP =       0.734   TIME= 01:17:31
 The /CONFIG,NOELDB command is not valid in a Distributed ANSYS          
 solution.  Command is ignored.                                          

 *GET  _WALLSTRT  FROM  ACTI  ITEM=TIME WALL  VALUE=  1.29194444    

 TITLE= 
 4d56--Static Structural (B5)                                                  


 SET PARAMETER DIMENSIONS ON  _WB_PROJECTSCRATCH_DIR
  TYPE=STRI  DIMENSIONS=      248        1        1

 PARAMETER _WB_PROJECTSCRATCH_DIR(1) = C:\Users\gachi\Desktop\Темирлан\engine-design-hw\ансис\расчет\_ProjectScratch\Scr7A6E\

 SET PARAMETER DIMENSIONS ON  _WB_SOLVERFILES_DIR
  TYPE=STRI  DIMENSIONS=      248        1        1

 PARAMETER _WB_SOLVERFILES_DIR(1) = C:\Users\gachi\Desktop\Темирлан\engine-design-hw\ансис\расчет\4d56_files\dp0\SYS-2\MECH\

 SET PARAMETER DIMENSIONS ON  _WB_USERFILES_DIR
  TYPE=STRI  DIMENSIONS=      248        1        1

 PARAMETER _WB_USERFILES_DIR(1) = C:\Users\gachi\Desktop\Темирлан\engine-design-hw\ансис\расчет\4d56_files\user_files\
 --- Data in consistent NMM units. See Solving Units in the help system for more

 MPA UNITS SPECIFIED FOR INTERNAL    
  LENGTH      = MILLIMETERS (mm)
  MASS        = TONNE (Mg)
  TIME        = SECONDS (sec)
  TEMPERATURE = CELSIUS (C)
  TOFFSET     = 273.0
  FORCE       = NEWTON (N)
  HEAT        = MILLIJOULES (mJ)

 INPUT  UNITS ARE ALSO SET TO MPA 

 *** ANSYS - ENGINEERING ANALYSIS SYSTEM  RELEASE Release 19.2     19.2     ***
 DISTRIBUTED ANSYS Mechanical Enterprise                       

 00000000  VERSION=WINDOWS x64   01:17:31  MAY 18, 2021 CP=      0.734

 4d56--Static Structural (B5)                                                  



          ***** ANSYS ANALYSIS DEFINITION (PREP7) *****
 *********** Nodes for the whole assembly ***********
 *********** Nodes for all Remote Points ***********
 *********** Elements for Body 1 "________ _____ ______" ***********
 *********** Elements for Body 2 "______ ____" ***********
 *********** Elements for Body 3 "________" ***********
 *********** Elements for Body 4 "________" ***********
 *********** Send User Defined Coordinate System(s) ***********
 *********** Set Reference Temperature ***********
 *********** Send Materials ***********
 *********** Create Contact "Frictional - держалка To колено вала" ***********
             Real Constant Set For Above Contact Is 6 & 5
 *********** Create Contact "Frictional - держалка To колено вала" ***********
             Real Constant Set For Above Contact Is 8 & 7
 *********** Fixed Supports ***********
 *********** Define Force Using Surface Effect Elements ***********
 *********** Create Remote Point "Internal Remote Point" ***********
 *********** Create Remote Point "Internal Remote Point 2" ***********
 *********** Construct Remote Displacement ***********
 *** Create a component for all remote displacements ***
 *********** Construct Remote Mass Using Remote Attachment ***********
 *********** Define Rotational Velocity ***********


 ***** ROUTINE COMPLETED *****  CP =         3.484


 --- Number of total nodes = 81197
 --- Number of contact elements = 3995
 --- Number of spring elements = 0
 --- Number of bearing elements = 0
 --- Number of solid elements = 37866
 --- Number of condensed parts = 0
 --- Number of total elements = 41864

 *GET  _WALLBSOL  FROM  ACTI  ITEM=TIME WALL  VALUE=  1.29222222    
 ****************************************************************************
 *************************    SOLUTION       ********************************
 ****************************************************************************

 *****  ANSYS SOLUTION ROUTINE  *****


 PERFORM A STATIC ANALYSIS
  THIS WILL BE A NEW ANALYSIS

 USE SPARSE MATRIX DIRECT SOLVER

 CONTACT INFORMATION PRINTOUT LEVEL       1

 DO NOT COMBINE ELEMENT MATRIX FILES (.emat) AFTER DISTRIBUTED PARALLEL SOLUTION

 DO NOT COMBINE ELEMENT SAVE DATA FILES (.esav) AFTER DISTRIBUTED PARALLEL SOLUTION

 NLDIAG: Nonlinear diagnostics CONT option is set to ON. 
         Writing frequency : each ITERATION.

 DEFINE RESTART CONTROL FOR LOADSTEP LAST
 AT FREQUENCY OF LAST AND NUMBER FOR OVERWRITE IS    0

 DELETE RESTART FILES OF ENDSTEP
 ****************************************************
 ******************* SOLVE FOR LS 1 OF 1 ****************

 SELECT       FOR ITEM=TYPE COMPONENT=    
  IN RANGE         9 TO          9 STEP          1

         25  ELEMENTS (OF      41864  DEFINED) SELECTED BY  ESEL  COMMAND.

 SELECT      ALL NODES HAVING ANY ELEMENT IN ELEMENT SET.

         74 NODES (OF      81197  DEFINED) SELECTED FROM
       25 SELECTED ELEMENTS BY NSLE COMMAND.

 SPECIFIED SURFACE LOAD PRES FOR ALL SELECTED ELEMENTS  LKEY =  1   KVAL = 1
     VALUES =    0.39215E-14    0.39215E-14    0.39215E-14    0.39215E-14

 SPECIFIED SURFACE LOAD PRES FOR ALL SELECTED ELEMENTS  LKEY =  2   KVAL = 1
     VALUES =    -63.887        -63.887        -63.887        -63.887    

 SPECIFIED SURFACE LOAD PRES FOR ALL SELECTED ELEMENTS  LKEY =  3   KVAL = 1
     VALUES =    -4.4674        -4.4674        -4.4674        -4.4674    

 ALL SELECT   FOR ITEM=NODE COMPONENT=    
  IN RANGE         1 TO     102475 STEP          1

      81197  NODES (OF      81197  DEFINED) SELECTED BY NSEL  COMMAND.

 ALL SELECT   FOR ITEM=ELEM COMPONENT=    
  IN RANGE         1 TO      53938 STEP          1

      41864  ELEMENTS (OF      41864  DEFINED) SELECTED BY  ESEL  COMMAND.

 SPECIFIED CONSTRAINT UX   FOR SELECTED NODES       102474 TO      102474 BY           1
 REAL=  0.00000000       IMAG=  0.00000000    

 SPECIFIED CONSTRAINT UY   FOR SELECTED NODES       102474 TO      102474 BY           1
 REAL=  0.00000000       IMAG=  0.00000000    

 SPECIFIED CONSTRAINT UZ   FOR SELECTED NODES       102474 TO      102474 BY           1
 REAL=  0.00000000       IMAG=  0.00000000    

 SPECIFIED CONSTRAINT ROTX FOR SELECTED NODES       102474 TO      102474 BY           1
 REAL=  0.00000000       IMAG=  0.00000000    

 SPECIFIED CONSTRAINT ROTY FOR SELECTED NODES       102474 TO      102474 BY           1
 REAL=  0.00000000       IMAG=  0.00000000    

 SPECIFIED CONSTRAINT ROTZ FOR SELECTED NODES       102474 TO      102474 BY           1
 REAL=  0.00000000       IMAG=  0.00000000    

 SELECT      COMPONENT CM_ROTVELCITY66                 

 ALSO SELECT  FOR ITEM=ELEM COMPONENT=    
  IN RANGE     53938 TO      53938 STEP          1

      21043  ELEMENTS (OF      41864  DEFINED) SELECTED BY  ESEL  COMMAND.

 DELETE COMPONENT CM_ROTVELCITY66                 

 DEFINITION OF COMPONENT = CM_ROTVELCITY66  ENTITY=ELEM

 ALL SELECT   FOR ITEM=ELEM COMPONENT=    
  IN RANGE         1 TO      53938 STEP          1

      41864  ELEMENTS (OF      41864  DEFINED) SELECTED BY  ESEL  COMMAND.

 CMOMEGA on component= cm_rotvelcity66                 
  OMEGAX, OMEGAY, OMEGAZ=   418.88      0.0000      0.0000    
  X1, Y1, Z1=   0.0000      0.0000      0.0000    

 PRINTOUT RESUMED BY /GOP

 USE AUTOMATIC TIME STEPPING THIS LOAD STEP

 USE       1 SUBSTEPS INITIALLY THIS LOAD STEP FOR ALL  DEGREES OF FREEDOM
 FOR AUTOMATIC TIME STEPPING:
   USE     10 SUBSTEPS AS A MAXIMUM
   USE      1 SUBSTEPS AS A MINIMUM

 TIME=  1.0000    

 ERASE THE CURRENT DATABASE OUTPUT CONTROL TABLE.


 WRITE ALL  ITEMS TO THE DATABASE WITH A FREQUENCY OF NONE
   FOR ALL APPLICABLE ENTITIES

 WRITE NSOL ITEMS TO THE DATABASE WITH A FREQUENCY OF ALL 
   FOR ALL APPLICABLE ENTITIES

 WRITE RSOL ITEMS TO THE DATABASE WITH A FREQUENCY OF ALL 
   FOR ALL APPLICABLE ENTITIES

 WRITE STRS ITEMS TO THE DATABASE WITH A FREQUENCY OF ALL 
   FOR ALL APPLICABLE ENTITIES

 WRITE EPEL ITEMS TO THE DATABASE WITH A FREQUENCY OF ALL 
   FOR ALL APPLICABLE ENTITIES

 WRITE EPPL ITEMS TO THE DATABASE WITH A FREQUENCY OF ALL 
   FOR ALL APPLICABLE ENTITIES

 NONLINEAR STABILIZATION CONTROL:
 KEY=OFF 


 *GET  ANSINTER_  FROM  ACTI  ITEM=INT        VALUE=  0.00000000    

 *IF  ANSINTER_                         ( =   0.00000     )  NE  
      0                                 ( =   0.00000     )  THEN    

 *ENDIF

 *** NOTE ***                            CP =       3.609   TIME= 01:17:32
 The automatic domain decomposition logic has selected the MESH domain   
 decomposition method with 8 processes per solution.                     

 *****  ANSYS SOLVE    COMMAND  *****

 *** WARNING ***                         CP =       3.734   TIME= 01:17:32
 Element shape checking is currently inactive.  Issue SHPP,ON or         
 SHPP,WARN to reactivate, if desired.                                    

 *** NOTE ***                            CP =       4.359   TIME= 01:17:32
 The model data was checked and warning messages were found.             
  Please review output or errors file (                                  
 C:\Users\gachi\Desktop\Темирлан\engine-design-hw\ансис\расчет\_ProjectS 
 Scratch\Scr7A6E\file0.err ) for these warning messages.                 

 *** SELECTION OF ELEMENT TECHNOLOGIES FOR APPLICABLE ELEMENTS ***
      --- GIVE SUGGESTIONS AND RESET THE KEY OPTIONS ---

 ELEMENT TYPE    1 IS SOLID187. IT IS NOT ASSOCIATED WITH FULLY INCOMPRESSIBLE
 HYPERELASTIC MATERIALS. NO SUGGESTION IS AVAILABLE AND NO RESETTING IS NEEDED.

 ELEMENT TYPE    2 IS SOLID187. IT IS NOT ASSOCIATED WITH FULLY INCOMPRESSIBLE
 HYPERELASTIC MATERIALS. NO SUGGESTION IS AVAILABLE AND NO RESETTING IS NEEDED.

 ELEMENT TYPE    3 IS SOLID186. KEYOPT(2)=0 IS SUGGESTED AND HAS BEEN RESET.
  KEYOPT(1-12)=    0    0    0    0    0    0    0    0    0    0    0    0

 ELEMENT TYPE    4 IS SOLID186. KEYOPT(2)=0 IS SUGGESTED AND HAS BEEN RESET.
  KEYOPT(1-12)=    0    0    0    0    0    0    0    0    0    0    0    0



 *** ANSYS - ENGINEERING ANALYSIS SYSTEM  RELEASE Release 19.2     19.2     ***
 DISTRIBUTED ANSYS Mechanical Enterprise                       

 00000000  VERSION=WINDOWS x64   01:17:32  MAY 18, 2021 CP=      4.484

 4d56--Static Structural (B5)                                                  



                       S O L U T I O N   O P T I O N S

   PROBLEM DIMENSIONALITY. . . . . . . . . . . . .3-D                  
   DEGREES OF FREEDOM. . . . . . UX   UY   UZ   ROTX ROTY ROTZ
   ANALYSIS TYPE . . . . . . . . . . . . . . . . .STATIC (STEADY-STATE)
   OFFSET TEMPERATURE FROM ABSOLUTE ZERO . . . . .  273.15    
   EQUATION SOLVER OPTION. . . . . . . . . . . . .SPARSE             
   NEWTON-RAPHSON OPTION . . . . . . . . . . . . .PROGRAM CHOSEN   
   GLOBALLY ASSEMBLED MATRIX . . . . . . . . . . .SYMMETRIC  

 *** WARNING ***                         CP =       4.734   TIME= 01:17:32
 Material number 9 (used by element 53161) should normally have at least 
 one MP or one TB type command associated with it.  Output of energy by  
 material may not be available.                                          

 *** NOTE ***                            CP =       4.984   TIME= 01:17:32
 The step data was checked and warning messages were found.              
  Please review output or errors file (                                  
 C:\Users\gachi\Desktop\Темирлан\engine-design-hw\ансис\расчет\_ProjectS 
 Scratch\Scr7A6E\file0.err ) for these warning messages.                 

 *** NOTE ***                            CP =       4.984   TIME= 01:17:32
 This nonlinear analysis defaults to using the full Newton-Raphson       
 solution procedure.  This can be modified using the NROPT command.      

 *** NOTE ***                            CP =       5.250   TIME= 01:17:32
 Internal nodes from 102476 to 105364 are created.                       
 2 internal nodes are used for handling degrees of freedom on pilot      
 nodes of rigid target surfaces.                                         
 2887 internal nodes are used for contact elements with Lagrange         
 multiplier method.                                                      

 *** NOTE ***                            CP =       5.312   TIME= 01:17:32
 Internal nodes from 102476 to 105364 are created.                       
 2 internal nodes are used for handling degrees of freedom on pilot      
 nodes of rigid target surfaces.                                         
 2887 internal nodes are used for contact elements with Lagrange         
 multiplier method.                                                      

 *** NOTE ***                            CP =       5.719   TIME= 01:17:32
 Symmetric Deformable- deformable contact pair identified by real        
 constant set 5 and contact element type 5 has been set up.  The         
 companion pair has real constant set ID 6.  Both pairs should have the  
 same behavior.                                                          
 ANSYS will deactivate the current pair and keep its companion pair,     
 resulting in asymmetric contact.                                        
 Small sliding logic is assumed
 Contact algorithm: Lagrange multiplier method on normal &
   penalty on tangential direction
 Contact detection at: nodal point (normal to target surface)
 Default penetration tolerance FTOLN will be used.
 Default Max. tensile stress TNOP will be used.
 Max. initial friction coefficient MU         0.15000    
 Default tangent stiffness factor FKT          1.0000    
 Default elastic slip factor SLTOL            0.10000E-01
 The resulting elastic slip tolerance         0.48342E-01
 Default Max. friction stress TAUMAX          0.10000E+21
 Average contact surface length                4.8342    
 Average contact pair depth                    4.5594    
 Default pinball region factor PINB            1.0000    
 The resulting pinball region                  4.5594    
 Default target edge extension factor TOLS     10.000    
 Auto contact offset used to close gap         0.0000    
 Initial penetration is excluded.

 *** NOTE ***                            CP =       5.719   TIME= 01:17:32
 Max.  Initial penetration 3.59623487E-15 was detected between contact   
 element 50337 and target element 51153.                                 
 ****************************************
  

 *** NOTE ***                            CP =       5.719   TIME= 01:17:32
 Symmetric Deformable- deformable contact pair identified by real        
 constant set 6 and contact element type 5 has been set up.  The         
 companion pair has real constant set ID 5.  Both pairs should have the  
 same behavior.                                                          
 ANSYS will keep the current pair and deactivate its companion pair,     
 resulting in asymmetric contact.                                        
 Small sliding logic is assumed
 Contact algorithm: Lagrange multiplier method on normal &
   penalty on tangential direction
 Contact detection at: nodal point (normal to target surface)
 Default penetration tolerance FTOLN will be used.
 Default Max. tensile stress TNOP will be used.
 Max. initial friction coefficient MU         0.15000    
 Default tangent stiffness factor FKT          1.0000    
 Default elastic slip factor SLTOL            0.10000E-01
 The resulting elastic slip tolerance         0.55260E-01
 Default Max. friction stress TAUMAX          0.10000E+21
 Average contact surface length                5.5260    
 Average contact pair depth                    4.4364    
 Default pinball region factor PINB            1.0000    
 The resulting pinball region                  4.4364    
 Default target edge extension factor TOLS     10.000    
 Auto contact offset used to close gap         0.0000    
 Initial penetration is excluded.

 *** NOTE ***                            CP =       5.719   TIME= 01:17:32
 Max.  Initial penetration 2.751210634E-05 was detected between contact  
 element 50797 and target element 50046.                                 
 You may move entire target surface by : x= -3.044505859E-20, y=         
 -1.535732194E-05, z= -2.282692836E-05,to reduce initial penetration.    
 ****************************************
  

 *** NOTE ***                            CP =       5.719   TIME= 01:17:32
 Symmetric Deformable- deformable contact pair identified by real        
 constant set 7 and contact element type 7 has been set up.  The         
 companion pair has real constant set ID 8.  Both pairs should have the  
 same behavior.                                                          
 ANSYS will deactivate the current pair and keep its companion pair,     
 resulting in asymmetric contact.                                        
 Small sliding logic is assumed
 Contact algorithm: Lagrange multiplier method on normal &
   penalty on tangential direction
 Contact detection at: nodal point (normal to target surface)
 Default penetration tolerance FTOLN will be used.
 Default Max. tensile stress TNOP will be used.
 Max. initial friction coefficient MU         0.15000    
 Default tangent stiffness factor FKT          1.0000    
 Default elastic slip factor SLTOL            0.10000E-01
 The resulting elastic slip tolerance         0.48342E-01
 Default Max. friction stress TAUMAX          0.10000E+21
 Average contact surface length                4.8342    
 Average contact pair depth                    4.5594    
 Default pinball region factor PINB            1.0000    
 The resulting pinball region                  4.5594    
 Default target edge extension factor TOLS     10.000    
 Auto contact offset used to close gap         0.0000    
 Initial penetration is excluded.

 *** NOTE ***                            CP =       5.719   TIME= 01:17:32
 Max.  Initial penetration 8.990952033E-04 was detected between contact  
 element 51897 and target element 52585.                                 
 You may move entire target surface by : x= -5.979236019E-07, y=         
 -4.85134526E-04, z= 7.569784136E-04,to reduce initial penetration.      
 ****************************************
  

 *** NOTE ***                            CP =       5.719   TIME= 01:17:32
 Symmetric Deformable- deformable contact pair identified by real        
 constant set 8 and contact element type 7 has been set up.  The         
 companion pair has real constant set ID 7.  Both pairs should have the  
 same behavior.                                                          
 ANSYS will keep the current pair and deactivate its companion pair,     
 resulting in asymmetric contact.                                        
 Small sliding logic is assumed
 Contact algorithm: Lagrange multiplier method on normal &
   penalty on tangential direction
 Contact detection at: nodal point (normal to target surface)
 Default penetration tolerance FTOLN will be used.
 Default Max. tensile stress TNOP will be used.
 Max. initial friction coefficient MU         0.15000    
 Default tangent stiffness factor FKT          1.0000    
 Default elastic slip factor SLTOL            0.10000E-01
 The resulting elastic slip tolerance         0.51968E-01
 Default Max. friction stress TAUMAX          0.10000E+21
 Average contact surface length                5.1968    
 Average contact pair depth                    4.2014    
 Default pinball region factor PINB            1.0000    
 The resulting pinball region                  4.2014    
 Default target edge extension factor TOLS     10.000    
 Auto contact offset used to close gap         0.0000    
 Initial penetration is excluded.

 *** NOTE ***                            CP =       5.719   TIME= 01:17:32
 Max.  Initial penetration 1.474512018E-03 was detected between contact  
 element 52016 and target element 51723.                                 
 You may move entire target surface by : x= 6.147954712E-19, y=          
 6.294847738E-04, z= 1.333392144E-03,to reduce initial penetration.      
 ****************************************
  

 *** NOTE ***                            CP =       5.719   TIME= 01:17:32
 Force-distributed-surface identified by real constant set 10 and        
 contact element type 10 has been set up.  The pilot node 102474 is      
 used to apply the force.  Internal MPC will be built.                   
 The used degrees of freedom set is  UX   UY   UZ   ROTX ROTY ROTZ
 Please verify constraints (including rotational degrees of freedom)
  on the pilot node by yourself.
 ****************************************
  

 *** NOTE ***                            CP =       5.719   TIME= 01:17:32
 Force-distributed-surface identified by real constant set 12 and        
 contact element type 12 has been set up.  The pilot node 102475 is      
 used to apply the force which connects to other element 53938.          
 Internal MPC will be built.                                             
 The used degrees of freedom set is  UX   UY   UZ  
 ****************************************
  
  
  

 *** NOTE ***                            CP =       5.781   TIME= 01:17:33
 Internal nodes from 102476 to 105364 are created.                       
 2 internal nodes are used for handling degrees of freedom on pilot      
 nodes of rigid target surfaces.                                         
 2887 internal nodes are used for contact elements with Lagrange         
 multiplier method.                                                      

  
  
     D I S T R I B U T E D   D O M A I N   D E C O M P O S E R
  
  ...Number of elements: 41864
  ...Number of nodes:    84086
  ...Decompose to 8 CPU domains
  ...Element load balance ratio =     1.248


                      L O A D   S T E P   O P T I O N S

   LOAD STEP NUMBER. . . . . . . . . . . . . . . .     1
   TIME AT END OF THE LOAD STEP. . . . . . . . . .  1.0000    
   AUTOMATIC TIME STEPPING . . . . . . . . . . . .    ON
      INITIAL NUMBER OF SUBSTEPS . . . . . . . . .     1
      MAXIMUM NUMBER OF SUBSTEPS . . . . . . . . .    10
      MINIMUM NUMBER OF SUBSTEPS . . . . . . . . .     1
   MAXIMUM NUMBER OF EQUILIBRIUM ITERATIONS. . . .    15
   STEP CHANGE BOUNDARY CONDITIONS . . . . . . . .    NO
   TERMINATE ANALYSIS IF NOT CONVERGED . . . . . .YES (EXIT)  
   CONVERGENCE CONTROLS. . . . . . . . . . . . . .USE DEFAULTS
   PRINT OUTPUT CONTROLS . . . . . . . . . . . . .NO PRINTOUT
   DATABASE OUTPUT CONTROLS
      ITEM     FREQUENCY   COMPONENT
       ALL       NONE               
      NSOL        ALL               
      RSOL        ALL               
      STRS        ALL               
      EPEL        ALL               
      EPPL        ALL               


 SOLUTION MONITORING INFO IS WRITTEN TO FILE= file.mntr                                                                                                                                                                                                                                                           
 MAXIMUM NUMBER OF EQUILIBRIUM ITERATIONS HAS BEEN MODIFIED              
  TO BE, NEQIT = 26, BY SOLUTION CONTROL LOGIC.                          



                         ***********  PRECISE MASS SUMMARY  ***********

   TOTAL RIGID BODY MASS MATRIX ABOUT ORIGIN
               Translational mass               |   Coupled translational/rotational mass
        0.12306E-01    0.0000        0.0000     |     0.0000      -0.17776E-03  -0.52462E-01
         0.0000       0.12306E-01    0.0000     |    0.17776E-03    0.0000       0.83020    
         0.0000        0.0000       0.12306E-01 |    0.52462E-01  -0.83020        0.0000    
     ------------------------------------------ | ------------------------------------------
                                                |         Rotational mass (inertia)
                                                |     35.469       -3.5391       0.11802E-01
                                                |    -3.5391        90.038       0.12784E-02
                                                |    0.11802E-01   0.12784E-02    98.532    

   TOTAL MASS = 0.12306E-01
     The mass principal axes coincide with the global Cartesian axes

   CENTER OF MASS (X,Y,Z)=    67.464        4.2632      -0.14445E-01

   TOTAL INERTIA ABOUT CENTER OF MASS
         35.245       0.23788E-03  -0.19002E-03
        0.23788E-03    34.030       0.52061E-03
       -0.19002E-03   0.52061E-03    42.300    
     The inertia principal axes coincide with the global Cartesian axes


  *** MASS SUMMARY BY ELEMENT TYPE ***

  TYPE      MASS
     1  0.913565E-03
     2  0.680493E-02
     3  0.214370E-02
     4  0.214370E-02
    14  0.300000E-03

 Range of element maximum matrix coefficients in global coordinates
 Maximum = 17240173.7 at element 46260.                                  
 Minimum = 174553.692 at element 45741.                                  

   *** ELEMENT MATRIX FORMULATION TIMES
     TYPE    NUMBER   ENAME      TOTAL CP  AVE CP

        1     12072  SOLID187      1.406   0.000116
        2     21042  SOLID187      2.406   0.000114
        3      2376  SOLID186      0.438   0.000184
        4      2376  SOLID186      0.547   0.000230
        5       770  CONTA174      0.359   0.000467
        6       770  TARGE170      0.031   0.000041
        7       840  CONTA174      0.375   0.000446
        8       840  TARGE170      0.016   0.000019
        9        25  SURF154       0.000   0.000000
       10       254  CONTA174      0.016   0.000062
       11         1  TARGE170      0.000   0.000000
       12       496  CONTA174      0.031   0.000063
       13         1  TARGE170      0.000   0.000000
       14         1  MASS21        0.000   0.000000
 Time at end of element matrix formulation CP = 8.515625.                

 ALL CURRENT ANSYS DATA WRITTEN TO FILE NAME= file.rdb
  FOR POSSIBLE RESUME FROM THIS POINT
     THE CONTACT STATUS HAS CHANGED AT     1  CONTACT POINTS
     FORCE CONVERGENCE VALUE  =   4985.      CRITERION=   25.43    

 DISTRIBUTED SPARSE MATRIX DIRECT SOLVER.
  Number of equations =      238353,    Maximum wavefront =    696

 *** NOTE ***                            CP =       9.719   TIME= 01:17:37
 The initial memory allocation (-m) has been exceeded.                   
  Supplemental memory allocations are being used.                        

  Local memory allocated for solver              =    239.201 MB
  Local memory required for in-core solution     =    168.596 MB
  Local memory required for out-of-core solution =     83.511 MB

  Total memory allocated for solver              =   2561.168 MB
  Total memory required for in-core solution     =   1802.922 MB
  Total memory required for out-of-core solution =    776.422 MB

 *** NOTE ***                            CP =      10.500   TIME= 01:17:37
 The Distributed Sparse Matrix Solver is currently running in the        
 in-core memory mode.  This memory mode uses the most amount of memory   
 in order to avoid using the hard drive as much as possible, which most  
 often results in the fastest solution time.  This mode is recommended   
 if enough physical memory is present to accommodate all of the solver   
 data.                                                                   

 *** WARNING ***                         CP =      10.500   TIME= 01:17:37
 Pivoting has been activated for the Distributed Sparse Matrix Solver .  
 The memory required may greatly exceed the predicted amount.  In that   
 event, use the DSPOPTION command to change the memory mode and/or       
 memory size used by the Distributed Sparse Matrix Solver.               
 curEqn=  15657  totEqn=  15657 Job CP sec=     13.875
      Factor Done= 100% Factor Wall sec=      2.770 rate=    6226.7 Mflops
 Distributed sparse solver maximum pivot= 6.081553075E+09 at node 56362  
 UY.                                                                     
 Distributed sparse solver minimum pivot= 78666.6522 at node 89896 UY.   
 Distributed sparse solver minimum pivot in absolute value= 78666.6522   
 at node 89896 UY.                                                       
     DISP CONVERGENCE VALUE   =  0.2661E-01  CRITERION=  0.1358E-02
    EQUIL ITER   1 COMPLETED.  NEW TRIANG MATRIX.  MAX DOF INC= -0.2661E-01
     DISP CONVERGENCE VALUE   =  0.2661E-01  CRITERION=  0.1386E-02
     LINE SEARCH PARAMETER =   1.000     SCALED MAX DOF INC = -0.2661E-01
     THE CONTACT STATUS HAS CHANGED AT   591  CONTACT POINTS
     FORCE CONVERGENCE VALUE  =   1504.      CRITERION=   158.9    
    EQUIL ITER   2 COMPLETED.  NEW TRIANG MATRIX.  MAX DOF INC=  0.5261E-02

 *** WARNING ***                         CP =      21.469   TIME= 01:17:48
 The rotational degree of freedom of pilot node 102475 is not well       
 constrained which can cause rigid body motion.                          
     DISP CONVERGENCE VALUE   =  0.5261E-02  CRITERION=  0.1414E-02
     LINE SEARCH PARAMETER =   1.000     SCALED MAX DOF INC =  0.5261E-02
     THE CONTACT STATUS HAS CHANGED AT   139  CONTACT POINTS
     FORCE CONVERGENCE VALUE  =   2366.      CRITERION=   162.2    
    EQUIL ITER   3 COMPLETED.  NEW TRIANG MATRIX.  MAX DOF INC= -0.7378E-02
     DISP CONVERGENCE VALUE   =  0.7378E-02  CRITERION=  0.1443E-02
     LINE SEARCH PARAMETER =   1.000     SCALED MAX DOF INC = -0.7378E-02
     THE CONTACT STATUS HAS CHANGED AT   266  CONTACT POINTS
     FORCE CONVERGENCE VALUE  =   2275.      CRITERION=   165.5    
    EQUIL ITER   4 COMPLETED.  NEW TRIANG MATRIX.  MAX DOF INC= -0.1635E-02
     DISP CONVERGENCE VALUE   =  0.1590E-02  CRITERION=  0.1472E-02
     LINE SEARCH PARAMETER =  0.9727     SCALED MAX DOF INC = -0.1590E-02
     THE CONTACT STATUS HAS CHANGED AT   223  CONTACT POINTS
     FORCE CONVERGENCE VALUE  =   1583.      CRITERION=   168.9    
    EQUIL ITER   5 COMPLETED.  NEW TRIANG MATRIX.  MAX DOF INC= -0.8157E-03
     DISP CONVERGENCE VALUE   =  0.8157E-03  CRITERION=  0.1502E-02 <<< CONVERGED
     LINE SEARCH PARAMETER =   1.000     SCALED MAX DOF INC = -0.8157E-03
     THE CONTACT STATUS HAS CHANGED AT   160  CONTACT POINTS
     FORCE CONVERGENCE VALUE  =   1218.      CRITERION=   172.3    
    EQUIL ITER   6 COMPLETED.  NEW TRIANG MATRIX.  MAX DOF INC= -0.8120E-03
     DISP CONVERGENCE VALUE   =  0.7977E-03  CRITERION=  0.1533E-02 <<< CONVERGED
     LINE SEARCH PARAMETER =  0.9824     SCALED MAX DOF INC = -0.7977E-03
     THE CONTACT STATUS HAS CHANGED AT   122  CONTACT POINTS
     FORCE CONVERGENCE VALUE  =   731.6      CRITERION=   175.8    
    EQUIL ITER   7 COMPLETED.  NEW TRIANG MATRIX.  MAX DOF INC= -0.8445E-03
     DISP CONVERGENCE VALUE   =  0.8445E-03  CRITERION=  0.1564E-02 <<< CONVERGED
     LINE SEARCH PARAMETER =   1.000     SCALED MAX DOF INC = -0.8445E-03
     THE CONTACT STATUS HAS CHANGED AT    60  CONTACT POINTS
     FORCE CONVERGENCE VALUE  =   445.3      CRITERION=   179.4    
    EQUIL ITER   8 COMPLETED.  NEW TRIANG MATRIX.  MAX DOF INC= -0.9346E-03
     DISP CONVERGENCE VALUE   =  0.9346E-03  CRITERION=  0.1596E-02 <<< CONVERGED
     LINE SEARCH PARAMETER =   1.000     SCALED MAX DOF INC = -0.9346E-03
     THE CONTACT STATUS HAS CHANGED AT   110  CONTACT POINTS
     FORCE CONVERGENCE VALUE  =   366.9      CRITERION=   183.1    
    EQUIL ITER   9 COMPLETED.  NEW TRIANG MATRIX.  MAX DOF INC=  0.4242E-03
     DISP CONVERGENCE VALUE   =  0.4242E-03  CRITERION=  0.1629E-02 <<< CONVERGED
     LINE SEARCH PARAMETER =   1.000     SCALED MAX DOF INC =  0.4242E-03
     THE CONTACT STATUS HAS CHANGED AT   240  CONTACT POINTS
     FORCE CONVERGENCE VALUE  =   237.0      CRITERION=   373.6     <<< CONVERGED
    EQUIL ITER  10 COMPLETED.  NEW TRIANG MATRIX.  MAX DOF INC=  0.3957E-03
     DISP CONVERGENCE VALUE   =  0.3957E-03  CRITERION=  0.1662E-02 <<< CONVERGED
     LINE SEARCH PARAMETER =   1.000     SCALED MAX DOF INC =  0.3957E-03
     THE CONTACT STATUS HAS CHANGED AT   221  CONTACT POINTS
     FORCE CONVERGENCE VALUE  =   290.8      CRITERION=   381.2     <<< CONVERGED
    EQUIL ITER  11 COMPLETED.  NEW TRIANG MATRIX.  MAX DOF INC=  0.3161E-03
     DISP CONVERGENCE VALUE   =  0.2280E-03  CRITERION=  0.1696E-02 <<< CONVERGED
     LINE SEARCH PARAMETER =  0.7213     SCALED MAX DOF INC =  0.2280E-03
     THE CONTACT STATUS HAS CHANGED AT   156  CONTACT POINTS
     FORCE CONVERGENCE VALUE  =   143.4      CRITERION=   389.0     <<< CONVERGED
    EQUIL ITER  12 COMPLETED.  NEW TRIANG MATRIX.  MAX DOF INC=  0.1978E-03
     DISP CONVERGENCE VALUE   =  0.1978E-03  CRITERION=  0.1730E-02 <<< CONVERGED
     LINE SEARCH PARAMETER =   1.000     SCALED MAX DOF INC =  0.1978E-03
     THE CONTACT STATUS HAS CHANGED AT   125  CONTACT POINTS
     FORCE CONVERGENCE VALUE  =   103.7      CRITERION=   397.0     <<< CONVERGED
    EQUIL ITER  13 COMPLETED.  NEW TRIANG MATRIX.  MAX DOF INC=  0.1199E-03
     DISP CONVERGENCE VALUE   =  0.1199E-03  CRITERION=  0.1766E-02 <<< CONVERGED
     LINE SEARCH PARAMETER =   1.000     SCALED MAX DOF INC =  0.1199E-03
     THE CONTACT STATUS HAS CHANGED AT    40  CONTACT POINTS
     FORCE CONVERGENCE VALUE  =   48.46      CRITERION=   405.1     <<< CONVERGED
    EQUIL ITER  14 COMPLETED.  NEW TRIANG MATRIX.  MAX DOF INC=  0.1420E-03
     DISP CONVERGENCE VALUE   =  0.6892E-04  CRITERION=  0.1802E-02 <<< CONVERGED
     LINE SEARCH PARAMETER =  0.4854     SCALED MAX DOF INC =  0.6892E-04
     THE CONTACT STATUS HAS CHANGED AT     9  CONTACT POINTS
     FORCE CONVERGENCE VALUE  =   29.82      CRITERION=   413.3     <<< CONVERGED
    EQUIL ITER  15 COMPLETED.  NEW TRIANG MATRIX.  MAX DOF INC=  0.1338E-03
     DISP CONVERGENCE VALUE   =  0.1338E-03  CRITERION=  0.1839E-02 <<< CONVERGED
     LINE SEARCH PARAMETER =   1.000     SCALED MAX DOF INC =  0.1338E-03
     THE CONTACT STATUS HAS CHANGED AT     3  CONTACT POINTS
     FORCE CONVERGENCE VALUE  =   74.68      CRITERION=   421.8     <<< CONVERGED
    EQUIL ITER  16 COMPLETED.  NEW TRIANG MATRIX.  MAX DOF INC= -0.1428E-03
     DISP CONVERGENCE VALUE   =  0.1428E-03  CRITERION=  0.1876E-02 <<< CONVERGED
     LINE SEARCH PARAMETER =   1.000     SCALED MAX DOF INC = -0.1428E-03
     THE CONTACT STATUS HAS CHANGED AT     1  CONTACT POINTS
    >>> SOLUTION CONVERGED AFTER EQUILIBRIUM ITERATION  16

   *** ELEMENT RESULT CALCULATION TIMES
     TYPE    NUMBER   ENAME      TOTAL CP  AVE CP

        1     12072  SOLID187      1.109   0.000092
        2     21042  SOLID187      2.000   0.000095
        3      2376  SOLID186      0.375   0.000158
        4      2376  SOLID186      0.234   0.000099
        5       770  CONTA174      0.078   0.000101
        7       840  CONTA174      0.062   0.000074
        9        25  SURF154       0.000   0.000000
       10       254  CONTA174      0.000   0.000000
       12       496  CONTA174      0.000   0.000000
       14         1  MASS21        0.000   0.000000

   *** NODAL LOAD CALCULATION TIMES
     TYPE    NUMBER   ENAME      TOTAL CP  AVE CP

        1     12072  SOLID187      0.031   0.000003
        2     21042  SOLID187      0.062   0.000003
        3      2376  SOLID186      0.047   0.000020
        4      2376  SOLID186      0.000   0.000000
        5       770  CONTA174      0.000   0.000000
        7       840  CONTA174      0.000   0.000000
        9        25  SURF154       0.000   0.000000
       10       254  CONTA174      0.000   0.000000
       12       496  CONTA174      0.000   0.000000
       14         1  MASS21        0.000   0.000000
 *** LOAD STEP     1   SUBSTEP     1  COMPLETED.    CUM ITER =     16
 *** TIME =   1.00000         TIME INC =   1.00000    


 *** ANSYS BINARY FILE STATISTICS
  BUFFER SIZE USED= 16384
        0.812 MB WRITTEN ON ELEMENT MATRIX FILE: file0.emat
       17.125 MB WRITTEN ON ELEMENT SAVED DATA FILE: file0.esav
       26.750 MB WRITTEN ON ASSEMBLED MATRIX FILE: file0.full
        4.938 MB WRITTEN ON RESULTS FILE: file0.rst
 *************** Write FE CONNECTORS *********

 WRITE OUT CONSTRAINT EQUATIONS TO FILE= file.ce                                                                                                                                                                                                                                                             
 ****************************************************
 *************** FINISHED SOLVE FOR LS 1 *************

 *GET  _WALLASOL  FROM  ACTI  ITEM=TIME WALL  VALUE=  1.32666667    

 PRINTOUT RESUMED BY /GOP

 FINISH SOLUTION PROCESSING


 ***** ROUTINE COMPLETED *****  CP =       128.812



 *** ANSYS - ENGINEERING ANALYSIS SYSTEM  RELEASE Release 19.2     19.2     ***
 DISTRIBUTED ANSYS Mechanical Enterprise                       

 00000000  VERSION=WINDOWS x64   01:19:36  MAY 18, 2021 CP=    128.828

 4d56--Static Structural (B5)                                                  



          ***** ANSYS RESULTS INTERPRETATION (POST1) *****

 *** NOTE ***                            CP =     128.828   TIME= 01:19:36
 Reading results into the database (SET command) will update the current 
 displacement and force boundary conditions in the database with the     
 values from the results file for that load set.  Note that any          
 subsequent solutions will use these values unless action is taken to    
 either SAVE the current values or not overwrite them (/EXIT,NOSAVE).    

 Set Encoding of XML File to:ISO-8859-1

 Set Output of XML File to:
     PARM,     ,     ,     ,     ,     ,     ,     ,     ,     ,     ,     ,
         ,     ,     ,     ,     ,     ,     ,

 DATABASE WRITTEN ON FILE  parm.xml                                                                                                                                                                                                                                                            

 EXIT THE ANSYS POST1 DATABASE PROCESSOR


 ***** ROUTINE COMPLETED *****  CP =       128.828



 PRINTOUT RESUMED BY /GOP

 *GET  _WALLDONE  FROM  ACTI  ITEM=TIME WALL  VALUE=  1.32666667    

 PARAMETER _PREPTIME =     1.000000000    

 PARAMETER _SOLVTIME =     124.0000000    

 PARAMETER _POSTTIME =     0.000000000    

 PARAMETER _TOTALTIM =     125.0000000    

 EXIT ANSYS WITHOUT SAVING DATABASE


 NUMBER OF WARNING MESSAGES ENCOUNTERED=          4
 NUMBER OF ERROR   MESSAGES ENCOUNTERED=          0

+--------- D I S T R I B U T E D   A N S Y S   S T A T I S T I C S ------------+

Release: Release 19.2       Build: 19.2       Update: UP20180808   Platform: WINDOWS x64 
Date Run: 05/18/2021   Time: 01:19     Process ID: 6376
Operating System: Windows 8  (Build: 9200)

Processor Model:        Intel(R) Xeon(R) CPU E5-2689 0 @ 2.60GHz

Compiler: Intel(R) FORTRAN Compiler Version 17.0.4  (Build: 20170411)
          Intel(R) C/C++ Compiler Version 17.0.4  (Build: 20170411)
          Intel(R) Math Kernel Library Version 2017.0.3 Product Build 20170413

Number of machines requested            :    1
Total number of cores available         :   16
Number of physical cores available      :    8
Number of processes requested           :    8
Number of threads per process requested :    1
Total number of cores requested         :    8 (Distributed Memory Parallel)               
MPI Type: INTELMPI
MPI Version: Intel(R) MPI Library 2017 Update 3 for Windows* OS


GPU Acceleration: Not Requested

Job Name: file0
Input File: dummy.dat

  Core                Machine Name   Working Directory
 -----------------------------------------------------
     0             DESKTOP-MHGJIJ6   C:\Users\gachi\Desktop\Темирлан\engine-design-hw\ансис\расчет\_ProjectScratch\Scr7A6E
     1             DESKTOP-MHGJIJ6   C:\Users\gachi\Desktop\Темирлан\engine-design-hw\ансис\расчет\_ProjectScratch\Scr7A6E
     2             DESKTOP-MHGJIJ6   C:\Users\gachi\Desktop\Темирлан\engine-design-hw\ансис\расчет\_ProjectScratch\Scr7A6E
     3             DESKTOP-MHGJIJ6   C:\Users\gachi\Desktop\Темирлан\engine-design-hw\ансис\расчет\_ProjectScratch\Scr7A6E
     4             DESKTOP-MHGJIJ6   C:\Users\gachi\Desktop\Темирлан\engine-design-hw\ансис\расчет\_ProjectScratch\Scr7A6E
     5             DESKTOP-MHGJIJ6   C:\Users\gachi\Desktop\Темирлан\engine-design-hw\ансис\расчет\_ProjectScratch\Scr7A6E
     6             DESKTOP-MHGJIJ6   C:\Users\gachi\Desktop\Темирлан\engine-design-hw\ансис\расчет\_ProjectScratch\Scr7A6E
     7             DESKTOP-MHGJIJ6   C:\Users\gachi\Desktop\Темирлан\engine-design-hw\ансис\расчет\_ProjectScratch\Scr7A6E
 
Latency time from master to core     1 =    2.095 microseconds
Latency time from master to core     2 =    2.105 microseconds
Latency time from master to core     3 =    2.098 microseconds
Latency time from master to core     4 =    2.554 microseconds
Latency time from master to core     5 =    2.105 microseconds
Latency time from master to core     6 =    2.149 microseconds
Latency time from master to core     7 =    2.093 microseconds
 
Communication speed from master to core     1 =  3971.55 MB/sec
Communication speed from master to core     2 =  4186.99 MB/sec
Communication speed from master to core     3 =  4723.15 MB/sec
Communication speed from master to core     4 =  4765.64 MB/sec
Communication speed from master to core     5 =  5154.39 MB/sec
Communication speed from master to core     6 =  6249.98 MB/sec
Communication speed from master to core     7 =  5407.69 MB/sec

Total CPU time for main thread                    :      125.0 seconds
Total CPU time summed for all threads             :      129.7 seconds

Elapsed time spent pre-processing model (/PREP7)  :        0.4 seconds
Elapsed time spent solution - preprocessing       :        1.3 seconds
Elapsed time spent computing solution             :      122.2 seconds
Elapsed time spent solution - postprocessing      :        0.1 seconds
Elapsed time spent post-processing model (/POST1) :        0.0 seconds
 
Equation solver used                              :            Sparse (symmetric)
Equation solver computational rate                :       63.2 Gflops
Equation solver effective I/O rate                :       29.1 GB/sec

Maximum total memory used                         :     6887.0 MB
Maximum total memory allocated                    :    11539.0 MB
Total physical memory available                   :         32 GB

Total amount of I/O written to disk               :        3.6 GB
Total amount of I/O read from disk                :        9.8 GB

+------ E N D   D I S T R I B U T E D   A N S Y S   S T A T I S T I C S -------+


 *---------------------------------------------------------------------------*
 |                                                                           |
 |                       DISTRIBUTED ANSYS RUN COMPLETED                     |
 |                                                                           |
 |---------------------------------------------------------------------------|
 |                                                                           |
 | Ansys Release 19.2          Build 19.2         UP20180808     WINDOWS x64 |
 |                                                                           |
 |---------------------------------------------------------------------------|
 |                                                                           |
 | Database Requested(-db)  1024 MB    Scratch Memory Requested      1024 MB |
 | Maximum Database Used      59 MB    Maximum Scratch Memory Used    835 MB |
 |                                                                           |
 |---------------------------------------------------------------------------|
 |                                                                           |
 |        CP Time      (sec) =        129.734       Time  =  01:19:36        |
 |        Elapsed Time (sec) =        130.000       Date  =  05/18/2021      |
 |                                                                           |
 *---------------------------------------------------------------------------*
